test/data/pti/uiuc150bus.raw
0,    100.00, 33, 0, 0, 60.00       / August 26, 2024 13:34:11; Simulator Version 23; BuildDate 2024_4_25


    1,'Johnsonvil~6',  13.8000,3,   1,   1,   1,1.03999996,   0.000000, 1.10000, 0.90000, 1.10000, 0.90000
    2,'GOODLETTSV~1', 230.0000,1,   1,   1,   1,1.00156999, -13.322391, 1.10000, 0.90000, 1.10000, 0.90000
    3,'LEBANON_37~1', 230.0000,1,   1,   1,   1,1.01153505, -12.276253, 1.10000, 0.90000, 1.10000, 0.90000
    4,'ANTIOCH_37~1', 230.0000,1,   1,   1,   1,1.00802279, -13.594090, 1.10000, 0.90000, 1.10000, 0.90000
    5,'BRENTWOOD_~1', 230.0000,1,   1,   1,   1,0.99777865, -15.467394, 1.10000, 0.90000, 1.10000, 0.90000
    6,'NASHVILLE_~3', 230.0000,1,   1,   1,   1,0.99675953, -14.398969, 1.10000, 0.90000, 1.10000, 0.90000
    7,'MCMINNVILL~1', 230.0000,1,   1,   1,   1,1.00709808, -12.431276, 1.10000, 0.90000, 1.10000, 0.90000
    8,'MURFREESBO~3', 230.0000,1,   1,   1,   1,1.02298927, -11.034584, 1.10000, 0.90000, 1.10000, 0.90000
    9,'SHELBYVILL~1', 230.0000,1,   1,   1,   1,1.00121009, -16.005517, 1.10000, 0.90000, 1.10000, 0.90000
   10,'LAFAYETTE_~1', 230.0000,1,   1,   1,   1,1.02103555, -11.140294, 1.10000, 0.90000, 1.10000, 0.90000
   11,'CLARKSVILL~3', 230.0000,1,   1,   1,   1,1.03163099,  -8.301216, 1.10000, 0.90000, 1.10000, 0.90000
   12,'DICKSON_37~1', 230.0000,1,   1,   1,   1,0.99887103, -12.623302, 1.10000, 0.90000, 1.10000, 0.90000
   13,'NASHVILLE_~8', 230.0000,1,   1,   1,   1,0.99019319, -15.742964, 1.10000, 0.90000, 1.10000, 0.90000
   14,'CLARKSVILL~1', 230.0000,1,   1,   1,   1,1.02369034,  -9.689667, 1.10000, 0.90000, 1.10000, 0.90000
   15,'WHITE HOUS~1', 230.0000,1,   1,   1,   1,1.01355088, -11.772938, 1.10000, 0.90000, 1.10000, 0.90000
   16,'FRANKLIN_3~1', 230.0000,1,   1,   1,   1,0.99387449, -16.759867, 1.10000, 0.90000, 1.10000, 0.90000
   17,'HENDERSONV~1', 230.0000,1,   1,   1,   1,1.01450670, -11.738480, 1.10000, 0.90000, 1.10000, 0.90000
   18,'HERMITAGE_~1', 230.0000,1,   1,   1,   1,1.01161599, -13.162668, 1.10000, 0.90000, 1.10000, 0.90000
   19,'SMYRNA_371~1', 230.0000,1,   1,   1,   1,1.00894594, -13.262385, 1.10000, 0.90000, 1.10000, 0.90000
   20,'LEXINGTON_~1', 230.0000,1,   1,   1,   1,1.01320481, -10.397969, 1.10000, 0.90000, 1.10000, 0.90000
   21,'NASHVILLE_~2', 230.0000,1,   1,   1,   1,1.00633967, -13.184341, 1.10000, 0.90000, 1.10000, 0.90000
   22,'NASHVILLE_~6', 230.0000,1,   1,   1,   1,1.01655579, -12.552993, 1.10000, 0.90000, 1.10000, 0.90000
   23,'MURFREESBO~1', 230.0000,1,   1,   1,   1,1.01855385, -11.925182, 1.10000, 0.90000, 1.10000, 0.90000
   24,'CAMDEN_383~1', 230.0000,1,   1,   1,   1,1.03639364,  -6.355726, 1.10000, 0.90000, 1.10000, 0.90000
   25,'GAINESBORO~1', 230.0000,1,   1,   1,   1,1.02368391, -11.032479, 1.10000, 0.90000, 1.10000, 0.90000
   26,'COLUMBIA_3~1', 230.0000,1,   1,   1,   1,1.00432873, -18.024524, 1.10000, 0.90000, 1.10000, 0.90000
   27,'TULLAHOMA_~1', 230.0000,1,   1,   1,   1,1.02965260,  -9.947991, 1.10000, 0.90000, 1.10000, 0.90000
   28,'NASHVILLE_~5', 230.0000,1,   1,   1,   1,1.00239551, -13.970970, 1.10000, 0.90000, 1.10000, 0.90000
   29,'NASHVILLE_~1', 230.0000,1,   1,   1,   1,1.00902283, -13.236434, 1.10000, 0.90000, 1.10000, 0.90000
   30,'NASHVILLE_~4', 230.0000,1,   1,   1,   1,1.00901258, -13.580323, 1.10000, 0.90000, 1.10000, 0.90000
   31,'CHATTANOOG~2', 230.0000,1,   1,   1,   1,1.01583266,  -9.472365, 1.10000, 0.90000, 1.10000, 0.90000
   32,'CHATTANOOG~3', 230.0000,1,   1,   1,   1,1.02743101,  -7.525068, 1.10000, 0.90000, 1.10000, 0.90000
   33,'ATHENS_373~1', 230.0000,1,   1,   1,   1,1.03012049,  -8.908685, 1.10000, 0.90000, 1.10000, 0.90000
   34,'CLEVELAND_~1', 230.0000,1,   1,   1,   1,1.01968837,  -8.644539, 1.10000, 0.90000, 1.10000, 0.90000
   35,'SODDY DAIS~1', 230.0000,1,   1,   1,   1,1.03193688,  -6.849859, 1.10000, 0.90000, 1.10000, 0.90000
   36,'COPPERHILL~1', 230.0000,1,   1,   1,   1,1.02377319,  -8.355126, 1.10000, 0.90000, 1.10000, 0.90000
   37,'DAYTON_373~1', 230.0000,1,   1,   1,   1,1.02193046,  -9.271676, 1.10000, 0.90000, 1.10000, 0.90000
   38,'DUNLAP_373~1', 230.0000,1,   1,   1,   1,1.01409137, -10.620881, 1.10000, 0.90000, 1.10000, 0.90000
   39,'FAYETTEVIL~1', 230.0000,1,   1,   1,   1,1.00996649, -13.844928, 1.10000, 0.90000, 1.10000, 0.90000
   40,'HIXSON_373~1', 230.0000,1,   1,   1,   1,1.02892017,  -7.351837, 1.10000, 0.90000, 1.10000, 0.90000
   41,'CHATTANOOG~1', 230.0000,1,   1,   1,   1,1.01925337,  -8.723609, 1.10000, 0.90000, 1.10000, 0.90000
   42,'JOHNSON CI~1', 230.0000,1,   1,   1,   1,1.01984394, -15.527137, 1.10000, 0.90000, 1.10000, 0.90000
   43,'JONESBOROU~1', 230.0000,1,   1,   1,   1,1.02309096, -15.088048, 1.10000, 0.90000, 1.10000, 0.90000
   44,'GREENEVILL~1', 230.0000,1,   1,   1,   1,1.02197552, -14.854796, 1.10000, 0.90000, 1.10000, 0.90000
   45,'ELIZABETHT~1', 230.0000,1,   1,   1,   1,1.02441788, -15.046705, 1.10000, 0.90000, 1.10000, 0.90000
   46,'CHURCH HIL~1', 230.0000,1,   1,   1,   1,1.02388430, -14.515158, 1.10000, 0.90000, 1.10000, 0.90000
   47,'KINGSPORT_~1', 230.0000,1,   1,   1,   1,1.01660728, -15.878450, 1.10000, 0.90000, 1.10000, 0.90000
   48,'MOUNTAIN C~1', 230.0000,1,   1,   1,   1,1.02117634, -15.601767, 1.10000, 0.90000, 1.10000, 0.90000
   49,'MARYVILLE_~2', 230.0000,1,   1,   1,   1,1.02217448, -11.907286, 1.10000, 0.90000, 1.10000, 0.90000
   50,'CLINTON_37~1', 230.0000,1,   1,   1,   1,1.00908363, -13.251959, 1.10000, 0.90000, 1.10000, 0.90000
   51,'MORRISTOWN~1', 230.0000,1,   1,   1,   1,1.01754940, -14.584472, 1.10000, 0.90000, 1.10000, 0.90000
   52,'KNOXVILLE_~1', 230.0000,1,   1,   1,   1,1.01030278, -13.803630, 1.10000, 0.90000, 1.10000, 0.90000
   53,'LOUDON_377~1', 230.0000,1,   1,   1,   1,1.02502644,  -9.999867, 1.10000, 0.90000, 1.10000, 0.90000
   54,'JEFFERSON ~1', 230.0000,1,   1,   1,   1,1.02357697, -13.669264, 1.10000, 0.90000, 1.10000, 0.90000
   55,'LA FOLLETT~1', 230.0000,1,   1,   1,   1,1.00933301, -12.755342, 1.10000, 0.90000, 1.10000, 0.90000
   56,'KNOXVILLE_~2', 230.0000,1,   1,   1,   1,1.00999939, -13.564335, 1.10000, 0.90000, 1.10000, 0.90000
   57,'CROSSVILLE~1', 230.0000,1,   1,   1,   1,1.01812553, -11.242543, 1.10000, 0.90000, 1.10000, 0.90000
   58,'TAZEWELL_3~1', 230.0000,1,   1,   1,   1,1.00968885, -14.859872, 1.10000, 0.90000, 1.10000, 0.90000
   59,'HARRIMAN_3~1', 230.0000,1,   1,   1,   1,1.02659965,  -9.742524, 1.10000, 0.90000, 1.10000, 0.90000
   60,'SEVIERVILL~1', 230.0000,1,   1,   1,   1,1.00971484, -14.702696, 1.10000, 0.90000, 1.10000, 0.90000
   61,'MARYVILLE_~1', 230.0000,1,   1,   1,   1,1.01398981, -11.626978, 1.10000, 0.90000, 1.10000, 0.90000
   62,'KNOXVILLE_~7', 230.0000,1,   1,   1,   1,1.01732588, -11.464087, 1.10000, 0.90000, 1.10000, 0.90000
   63,'KNOXVILLE_~5', 230.0000,1,   1,   1,   1,1.02079821, -11.787592, 1.10000, 0.90000, 1.10000, 0.90000
   64,'KNOXVILLE_~3', 230.0000,1,   1,   1,   1,1.02024889, -11.518516, 1.10000, 0.90000, 1.10000, 0.90000
   65,'HUMBOLDT_3~1', 230.0000,1,   1,   1,   1,1.01196921, -12.325903, 1.10000, 0.90000, 1.10000, 0.90000
   66,'ARLINGTON_~1', 230.0000,1,   1,   1,   1,0.99740857, -16.016133, 1.10000, 0.90000, 1.10000, 0.90000
   67,'BRIGHTON_3~1', 230.0000,1,   1,   1,   1,1.00710893, -14.189493, 1.10000, 0.90000, 1.10000, 0.90000
   68,'UNION CITY~1', 230.0000,1,   1,   1,   1,1.00456226, -13.221020, 1.10000, 0.90000, 1.10000, 0.90000
   69,'WHITEVILLE~1', 230.0000,1,   1,   1,   1,1.01595783, -13.187723, 1.10000, 0.90000, 1.10000, 0.90000
   70,'BROWNSVILL~1', 230.0000,1,   1,   1,   1,1.02060509, -12.289992, 1.10000, 0.90000, 1.10000, 0.90000
   71,'CORDOVA_38~1', 230.0000,1,   1,   1,   1,0.99754816, -16.272663, 1.10000, 0.90000, 1.10000, 0.90000
   72,'COLLIERVIL~1', 230.0000,1,   1,   1,   1,0.99378538, -16.532529, 1.10000, 0.90000, 1.10000, 0.90000
   73,'DYERSBURG_~1', 230.0000,1,   1,   1,   1,1.01158476, -12.748248, 1.10000, 0.90000, 1.10000, 0.90000
   74,'MEMPHIS_38~9', 230.0000,1,   1,   1,   1,0.99350858, -16.869345, 1.10000, 0.90000, 1.10000, 0.90000
   75,'MEMPHIS_38~7', 230.0000,1,   1,   1,   1,0.98973179, -17.266522, 1.10000, 0.90000, 1.10000, 0.90000
   76,'MEMPHIS_38~1', 230.0000,1,   1,   1,   1,0.99659365, -16.925455, 1.10000, 0.90000, 1.10000, 0.90000
   77,'MEMPHIS_38~2', 230.0000,1,   1,   1,   1,0.99348748, -17.434384, 1.10000, 0.90000, 1.10000, 0.90000
   78,'MEMPHIS_38~8', 230.0000,1,   1,   1,   1,0.99140269, -17.271069, 1.10000, 0.90000, 1.10000, 0.90000
   79,'MEMPHIS_38~3', 230.0000,1,   1,   1,   1,1.00801790, -15.688676, 1.10000, 0.90000, 1.10000, 0.90000
   80,'MEMPHIS_38~5', 230.0000,1,   1,   1,   1,0.99712652, -16.828992, 1.10000, 0.90000, 1.10000, 0.90000
   81,'MEMPHIS_38~6', 230.0000,1,   1,   1,   1,0.99909037, -16.784652, 1.10000, 0.90000, 1.10000, 0.90000
   82,'GERMANTOWN~1', 230.0000,1,   1,   1,   1,0.99460751, -16.993628, 1.10000, 0.90000, 1.10000, 0.90000
   83,'HUNTINGDON~1', 230.0000,1,   1,   1,   1,1.00666797, -12.395690, 1.10000, 0.90000, 1.10000, 0.90000
   84,'PARIS_3824~1', 230.0000,1,   1,   1,   1,1.01699769,  -9.709042, 1.10000, 0.90000, 1.10000, 0.90000
   85,'MARTIN_382~1', 230.0000,1,   1,   1,   1,1.00598776, -12.232788, 1.10000, 0.90000, 1.10000, 0.90000
   86,'JACKSON_38~1', 230.0000,1,   1,   1,   1,1.03198683,  -9.718451, 1.10000, 0.90000, 1.10000, 0.90000
   87,'ADAMSVILLE~1', 230.0000,1,   1,   1,   1,1.01936615, -12.676450, 1.10000, 0.90000, 1.10000, 0.90000
   88,'SAVANNAH_3~1', 230.0000,1,   1,   1,   1,1.01414859, -13.706719, 1.10000, 0.90000, 1.10000, 0.90000
   89,'LAWRENCEBU~1', 230.0000,1,   1,   1,   1,0.98907083, -18.750920, 1.10000, 0.90000, 1.10000, 0.90000
   90,'COOKEVILLE~1', 230.0000,1,   1,   1,   1,1.02926469,  -9.961516, 1.10000, 0.90000, 1.10000, 0.90000
   91,'LIVINGSTON~1', 230.0000,1,   1,   1,   1,1.02216947, -11.258293, 1.10000, 0.90000, 1.10000, 0.90000
   92,'KNOXVILLE_~6', 500.0000,1,   1,   1,   1,1.03861248,  -8.562273, 1.10000, 0.90000, 1.10000, 0.90000
   93,'JEFFERSON ~2', 500.0000,1,   1,   1,   1,1.04152751, -10.864033, 1.10000, 0.90000, 1.10000, 0.90000
   94,'HIXSON_373~2', 500.0000,1,   1,   1,   1,1.04913747,  -3.806556, 1.10000, 0.90000, 1.10000, 0.90000
   95,'JACKSON_38~2', 500.0000,1,   1,   1,   1,1.04848635,  -6.892177, 1.10000, 0.90000, 1.10000, 0.90000
   96,'MURFREESBO~2', 500.0000,1,   1,   1,   1,1.03800452,  -8.117346, 1.10000, 0.90000, 1.10000, 0.90000
   97,'JONESBOROU~2', 500.0000,1,   1,   1,   1,1.04024279, -12.094756, 1.10000, 0.90000, 1.10000, 0.90000
   98,'CLARKSVILL~4', 500.0000,1,   1,   1,   1,1.04584873,  -5.453605, 1.10000, 0.90000, 1.10000, 0.90000
   99,'MEMPHIS_38~4', 500.0000,1,   1,   1,   1,1.02602673, -11.403434, 1.10000, 0.90000, 1.10000, 0.90000
  100,'KNOXVILLE_~4', 500.0000,1,   1,   1,   1,1.03946424,  -8.114356, 1.10000, 0.90000, 1.10000, 0.90000
  101,'NASHVILLE_~7', 500.0000,1,   1,   1,   1,1.03985035,  -7.432964, 1.10000, 0.90000, 1.10000, 0.90000
  102,'MURFREESBO~4', 500.0000,1,   1,   1,   1,1.03948402,  -7.972623, 1.10000, 0.90000, 1.10000, 0.90000
  103,'ELIZABETHT~2', 500.0000,1,   1,   1,   1,1.03733385, -12.663087, 1.10000, 0.90000, 1.10000, 0.90000
  104,'CORDOVA_38~2', 500.0000,1,   1,   1,   1,1.02698302, -11.119259, 1.10000, 0.90000, 1.10000, 0.90000
  105,'COOKEVILLE~2', 500.0000,1,   1,   1,   1,1.04435623,  -6.828094, 1.10000, 0.90000, 1.10000, 0.90000
  106,'TULLAHOMA_~2', 500.0000,1,   1,   1,   1,1.04257548,  -7.020808, 1.10000, 0.90000, 1.10000, 0.90000
  107,'ATHENS_373~2', 500.0000,1,   1,   1,   1,1.04645860,  -6.049626, 1.10000, 0.90000, 1.10000, 0.90000
  108,'CLARKSVILL~2', 500.0000,1,   1,   1,   1,1.04499233,  -5.764176, 1.10000, 0.90000, 1.10000, 0.90000
  109,'MARYVILLE_~3', 500.0000,1,   1,   1,   1,1.03969097,  -8.905937, 1.10000, 0.90000, 1.10000, 0.90000
  110,'Gallatin (~3',  13.8000,2,   1,   1,   1,1.03999996,  -3.630643, 1.10000, 0.90000, 1.10000, 0.90000
  111,'Gallatin (~4',  13.8000,2,   1,   1,   1,1.03999996,  -3.630643, 1.10000, 0.90000, 1.10000, 0.90000
  112,'Gallatin (~5',  13.8000,2,   1,   1,   1,1.03999996,  -3.630643, 1.10000, 0.90000, 1.10000, 0.90000
  113,'John Sevie~3',  13.8000,2,   1,   1,   1,1.03999996,  -8.097089, 1.10000, 0.90000, 1.10000, 0.90000
  114,'John Sevie~4',  13.8000,2,   1,   1,   1,1.03999996,  -8.097089, 1.10000, 0.90000, 1.10000, 0.90000
  115,'John Sevie~5',  13.8000,2,   1,   1,   1,1.03999996,  -8.097089, 1.10000, 0.90000, 1.10000, 0.90000
  116,'Johnsonvil~3',  13.8000,2,   1,   1,   1,1.03999996,  -0.004240, 1.10000, 0.90000, 1.10000, 0.90000
  117,'Johnsonvil~4',  13.8000,2,   1,   1,   1,1.03999996,  -0.004240, 1.10000, 0.90000, 1.10000, 0.90000
  118,'Johnsonvil~5',  13.8000,2,   1,   1,   1,1.03999996,  -0.004240, 1.10000, 0.90000, 1.10000, 0.90000
  119,'Johnsonvil~7',  13.8000,2,   1,   1,   1,1.03999996,  -0.004241, 1.10000, 0.90000, 1.10000, 0.90000
  120,'Kingston_g1 ',  13.8000,2,   1,   1,   1,1.03999996,  -2.822212, 1.10000, 0.90000, 1.10000, 0.90000
  121,'Kingston_g2 ',  13.8000,2,   1,   1,   1,1.03999996,  -2.822212, 1.10000, 0.90000, 1.10000, 0.90000
  122,'Kingston_g3 ',  13.8000,2,   1,   1,   1,1.03999996,  -2.822211, 1.10000, 0.90000, 1.10000, 0.90000
  123,'Kingston_g4 ',  13.8000,2,   1,   1,   1,1.03999996,  -2.822211, 1.10000, 0.90000, 1.10000, 0.90000
  124,'Lagoon Cre~3',  13.8000,2,   1,   1,   1,1.03999996,  -4.973858, 1.10000, 0.90000, 1.10000, 0.90000
  125,'Lagoon Cre~4',  13.8000,2,   1,   1,   1,1.03999996,  -4.973858, 1.10000, 0.90000, 1.10000, 0.90000
  126,'Lagoon Cre~5',  13.8000,2,   1,   1,   1,1.03999996,  -4.973858, 1.10000, 0.90000, 1.10000, 0.90000
  127,'Lagoon Cre~6',  13.8000,2,   1,   1,   1,1.03999996,  -4.973858, 1.10000, 0.90000, 1.10000, 0.90000
  128,'Lagoon Cre~7',  13.8000,2,   1,   1,   1,1.03999996,  -4.973858, 1.10000, 0.90000, 1.10000, 0.90000
  129,'Pickwick L~3',  13.8000,2,   1,   1,   1,1.03999996,  -4.835853, 1.10000, 0.90000, 1.10000, 0.90000
  130,'Sequoyah_g1 ',  13.8000,2,   1,   1,   1,1.03999996,   0.091304, 1.10000, 0.90000, 1.10000, 0.90000
  131,'Sequoyah_g2 ',  13.8000,2,   1,   1,   1,1.03999996,   0.091304, 1.10000, 0.90000, 1.10000, 0.90000
  132,'Sequoyah_g3 ',  13.8000,2,   1,   1,   1,1.03999996,   0.091304, 1.10000, 0.90000, 1.10000, 0.90000
  133,'Sequoyah_g4 ',  13.8000,2,   1,   1,   1,1.03999996,   0.091304, 1.10000, 0.90000, 1.10000, 0.90000
  134,'Sequoyah_g5 ',  13.8000,2,   1,   1,   1,1.03999996,   0.091304, 1.10000, 0.90000, 1.10000, 0.90000
  135,'Tims Ford_g1',  13.8000,2,   1,   1,   1,1.03999996,  -8.497941, 1.10000, 0.90000, 1.10000, 0.90000
  136,'Lagoon Cre~1', 230.0000,1,   1,   1,   1,1.02912223, -10.927838, 1.10000, 0.90000, 1.10000, 0.90000
  137,'Lagoon Cre~2', 500.0000,1,   1,   1,   1,1.04521859,  -7.839897, 1.10000, 0.90000, 1.10000, 0.90000
  138,'Kingston_2~1', 230.0000,1,   1,   1,   1,1.03409183,  -8.659737, 1.10000, 0.90000, 1.10000, 0.90000
  139,'Kingston_5~1', 500.0000,1,   1,   1,   1,1.04835868,  -5.683955, 1.10000, 0.90000, 1.10000, 0.90000
  140,'Tims Ford_~1', 230.0000,1,   1,   1,   1,1.02353764, -11.394361, 1.10000, 0.90000, 1.10000, 0.90000
  141,'Gallatin (~1', 230.0000,1,   1,   1,   1,1.02657771, -10.014119, 1.10000, 0.90000, 1.10000, 0.90000
  142,'Gallatin (~2', 500.0000,1,   1,   1,   1,1.04443419,  -6.497759, 1.10000, 0.90000, 1.10000, 0.90000
  143,'Johnsonvil~1', 230.0000,1,   1,   1,   1,1.04031813,  -5.762745, 1.10000, 0.90000, 1.10000, 0.90000
  144,'Johnsonvil~2', 500.0000,1,   1,   1,   1,1.05403531,  -2.858283, 1.10000, 0.90000, 1.10000, 0.90000
  145,'Sequoyah_2~1', 230.0000,1,   1,   1,   1,1.03728795,  -6.028652, 1.10000, 0.90000, 1.10000, 0.90000
  146,'Sequoyah_5~1', 500.0000,1,   1,   1,   1,1.05252087,  -2.764785, 1.10000, 0.90000, 1.10000, 0.90000
  147,'Pickwick L~1', 230.0000,1,   1,   1,   1,1.03409159, -10.566876, 1.10000, 0.90000, 1.10000, 0.90000
  148,'Pickwick L~2', 500.0000,1,   1,   1,   1,1.04783785,  -7.698306, 1.10000, 0.90000, 1.10000, 0.90000
  149,'John Sevie~1', 230.0000,1,   1,   1,   1,1.03452349, -12.909484, 1.10000, 0.90000, 1.10000, 0.90000
  150,'John Sevie~2', 500.0000,1,   1,   1,   1,1.04490936, -10.963552, 1.10000, 0.90000, 1.10000, 0.90000
0 / END OF BUS DATA, BEGIN LOAD DATA
    2,'1 ',1,   1,   1,   184.310,    52.528,     0.000,     0.000,     0.000,     0.000,   1,1, 0
    3,'1 ',1,   1,   1,   165.516,    47.172,     0.000,     0.000,     0.000,     0.000,   1,1, 0
    4,'1 ',1,   1,   1,   156.812,    44.691,     0.000,     0.000,     0.000,     0.000,   1,1, 0
    5,'1 ',1,   1,   1,   168.446,    48.007,     0.000,     0.000,     0.000,     0.000,   1,1, 0
    6,'1 ',1,   1,   1,   156.888,    44.713,     0.000,     0.000,     0.000,     0.000,   1,1, 0
    7,'1 ',1,   1,   1,   134.580,    38.355,     0.000,     0.000,     0.000,     0.000,   1,1, 0
    8,'1 ',1,   1,   1,   195.400,    55.689,     0.000,     0.000,     0.000,     0.000,   1,1, 0
    9,'1 ',1,   1,   1,   176.314,    50.249,     0.000,     0.000,     0.000,     0.000,   1,1, 0
   10,'1 ',1,   1,   1,    72.722,    20.726,     0.000,     0.000,     0.000,     0.000,   1,1, 0
   11,'1 ',1,   1,   1,   189.926,    54.129,     0.000,     0.000,     0.000,     0.000,   1,1, 0
   12,'1 ',1,   1,   1,   125.302,    35.711,     0.000,     0.000,     0.000,     0.000,   1,1, 0
   13,'1 ',1,   1,   1,   177.272,    50.523,     0.000,     0.000,     0.000,     0.000,   1,1, 0
   14,'1 ',1,   1,   1,   199.170,    56.763,     0.000,     0.000,     0.000,     0.000,   1,1, 0
   15,'1 ',1,   1,   1,   178.438,    50.855,     0.000,     0.000,     0.000,     0.000,   1,1, 0
   16,'1 ',1,   1,   1,   119.770,    34.134,     0.000,     0.000,     0.000,     0.000,   1,1, 0
   17,'1 ',1,   1,   1,   162.894,    46.425,     0.000,     0.000,     0.000,     0.000,   1,1, 0
   18,'1 ',1,   1,   1,   129.658,    36.953,     0.000,     0.000,     0.000,     0.000,   1,1, 0
   19,'1 ',1,   1,   1,   161.670,    46.076,     0.000,     0.000,     0.000,     0.000,   1,1, 0
   20,'1 ',1,   1,   1,    99.260,    28.289,     0.000,     0.000,     0.000,     0.000,   1,1, 0
   21,'1 ',1,   1,   1,   180.088,    51.325,     0.000,     0.000,     0.000,     0.000,   1,1, 0
   22,'1 ',1,   1,   1,   194.992,    55.573,     0.000,     0.000,     0.000,     0.000,   1,1, 0
   23,'1 ',1,   1,   1,   187.178,    53.346,     0.000,     0.000,     0.000,     0.000,   1,1, 0
   24,'1 ',1,   1,   1,    60.742,    17.311,     0.000,     0.000,     0.000,     0.000,   1,1, 0
   25,'1 ',1,   1,   1,    39.542,    11.269,     0.000,     0.000,     0.000,     0.000,   1,1, 0
   26,'1 ',1,   1,   1,   161.774,    46.106,     0.000,     0.000,     0.000,     0.000,   1,1, 0
   27,'1 ',1,   1,   1,   199.086,    56.740,     0.000,     0.000,     0.000,     0.000,   1,1, 0
   28,'1 ',1,   1,   1,   131.124,    37.370,     0.000,     0.000,     0.000,     0.000,   1,1, 0
   29,'1 ',1,   1,   1,   141.478,    40.321,     0.000,     0.000,     0.000,     0.000,   1,1, 0
   30,'1 ',1,   1,   1,   149.510,    42.610,     0.000,     0.000,     0.000,     0.000,   1,1, 0
   31,'1 ',1,   1,   1,   153.822,    43.839,     0.000,     0.000,     0.000,     0.000,   1,1, 0
   32,'1 ',1,   1,   1,   167.516,    47.742,     0.000,     0.000,     0.000,     0.000,   1,1, 0
   33,'1 ',1,   1,   1,   199.092,    56.741,     0.000,     0.000,     0.000,     0.000,   1,1, 0
   34,'1 ',1,   1,   1,   158.008,    45.032,     0.000,     0.000,     0.000,     0.000,   1,1, 0
   35,'1 ',1,   1,   1,   166.046,    47.323,     0.000,     0.000,     0.000,     0.000,   1,1, 0
   36,'1 ',1,   1,   1,    10.004,     2.851,     0.000,     0.000,     0.000,     0.000,   1,1, 0
   37,'1 ',1,   1,   1,    87.526,    24.945,     0.000,     0.000,     0.000,     0.000,   1,1, 0
   38,'1 ',1,   1,   1,    42.842,    12.210,     0.000,     0.000,     0.000,     0.000,   1,1, 0
   39,'1 ',1,   1,   1,    68.288,    19.462,     0.000,     0.000,     0.000,     0.000,   1,1, 0
   40,'1 ',1,   1,   1,   186.836,    53.248,     0.000,     0.000,     0.000,     0.000,   1,1, 0
   41,'1 ',1,   1,   1,   161.228,    45.950,     0.000,     0.000,     0.000,     0.000,   1,1, 0
   42,'1 ',1,   1,   1,   155.942,    44.443,     0.000,     0.000,     0.000,     0.000,   1,1, 0
   43,'1 ',1,   1,   1,   188.776,    53.801,     0.000,     0.000,     0.000,     0.000,   1,1, 0
   44,'1 ',1,   1,   1,   114.860,    32.735,     0.000,     0.000,     0.000,     0.000,   1,1, 0
   45,'1 ',1,   1,   1,   197.410,    56.262,     0.000,     0.000,     0.000,     0.000,   1,1, 0
   46,'1 ',1,   1,   1,    93.462,    26.637,     0.000,     0.000,     0.000,     0.000,   1,1, 0
   47,'1 ',1,   1,   1,   181.602,    51.757,     0.000,     0.000,     0.000,     0.000,   1,1, 0
   48,'1 ',1,   1,   1,    31.398,     8.948,     0.000,     0.000,     0.000,     0.000,   1,1, 0
   49,'1 ',1,   1,   1,   199.462,    56.847,     0.000,     0.000,     0.000,     0.000,   1,1, 0
   50,'1 ',1,   1,   1,   154.506,    44.034,     0.000,     0.000,     0.000,     0.000,   1,1, 0
   51,'1 ',1,   1,   1,   179.204,    51.073,     0.000,     0.000,     0.000,     0.000,   1,1, 0
   52,'1 ',1,   1,   1,   126.818,    36.143,     0.000,     0.000,     0.000,     0.000,   1,1, 0
   53,'1 ',1,   1,   1,   184.312,    52.529,     0.000,     0.000,     0.000,     0.000,   1,1, 0
   54,'1 ',1,   1,   1,   185.602,    52.897,     0.000,     0.000,     0.000,     0.000,   1,1, 0
   55,'1 ',1,   1,   1,   112.628,    32.099,     0.000,     0.000,     0.000,     0.000,   1,1, 0
   56,'1 ',1,   1,   1,   176.998,    50.444,     0.000,     0.000,     0.000,     0.000,   1,1, 0
   57,'1 ',1,   1,   1,   129.658,    36.953,     0.000,     0.000,     0.000,     0.000,   1,1, 0
   58,'1 ',1,   1,   1,    66.006,    18.812,     0.000,     0.000,     0.000,     0.000,   1,1, 0
   59,'1 ',1,   1,   1,   121.514,    34.631,     0.000,     0.000,     0.000,     0.000,   1,1, 0
   60,'1 ',1,   1,   1,   124.074,    35.361,     0.000,     0.000,     0.000,     0.000,   1,1, 0
   61,'1 ',1,   1,   1,   131.734,    37.544,     0.000,     0.000,     0.000,     0.000,   1,1, 0
   62,'1 ',1,   1,   1,   166.176,    47.360,     0.000,     0.000,     0.000,     0.000,   1,1, 0
   63,'1 ',1,   1,   1,   185.436,    52.849,     0.000,     0.000,     0.000,     0.000,   1,1, 0
   64,'1 ',1,   1,   1,   193.856,    55.249,     0.000,     0.000,     0.000,     0.000,   1,1, 0
   65,'1 ',1,   1,   1,   118.736,    33.840,     0.000,     0.000,     0.000,     0.000,   1,1, 0
   66,'1 ',1,   1,   1,    88.778,    25.302,     0.000,     0.000,     0.000,     0.000,   1,1, 0
   67,'1 ',1,   1,   1,   154.146,    43.932,     0.000,     0.000,     0.000,     0.000,   1,1, 0
   68,'1 ',1,   1,   1,    66.688,    19.006,     0.000,     0.000,     0.000,     0.000,   1,1, 0
   69,'1 ',1,   1,   1,    64.746,    18.453,     0.000,     0.000,     0.000,     0.000,   1,1, 0
   70,'1 ',1,   1,   1,    33.902,     9.662,     0.000,     0.000,     0.000,     0.000,   1,1, 0
   71,'1 ',1,   1,   1,   197.850,    56.387,     0.000,     0.000,     0.000,     0.000,   1,1, 0
   72,'1 ',1,   1,   1,   166.176,    47.360,     0.000,     0.000,     0.000,     0.000,   1,1, 0
   73,'1 ',1,   1,   1,    87.926,    25.059,     0.000,     0.000,     0.000,     0.000,   1,1, 0
   74,'1 ',1,   1,   1,   173.844,    49.546,     0.000,     0.000,     0.000,     0.000,   1,1, 0
   75,'1 ',1,   1,   1,   146.928,    41.874,     0.000,     0.000,     0.000,     0.000,   1,1, 0
   76,'1 ',1,   1,   1,   168.554,    48.038,     0.000,     0.000,     0.000,     0.000,   1,1, 0
   77,'1 ',1,   1,   1,   147.632,    42.075,     0.000,     0.000,     0.000,     0.000,   1,1, 0
   78,'1 ',1,   1,   1,   177.724,    50.651,     0.000,     0.000,     0.000,     0.000,   1,1, 0
   79,'1 ',1,   1,   1,   191.228,    54.500,     0.000,     0.000,     0.000,     0.000,   1,1, 0
   80,'1 ',1,   1,   1,   167.842,    47.835,     0.000,     0.000,     0.000,     0.000,   1,1, 0
   81,'1 ',1,   1,   1,   163.738,    46.665,     0.000,     0.000,     0.000,     0.000,   1,1, 0
   82,'1 ',1,   1,   1,   152.562,    43.480,     0.000,     0.000,     0.000,     0.000,   1,1, 0
   83,'1 ',1,   1,   1,    83.508,    23.800,     0.000,     0.000,     0.000,     0.000,   1,1, 0
   84,'1 ',1,   1,   1,    67.184,    19.147,     0.000,     0.000,     0.000,     0.000,   1,1, 0
   85,'1 ',1,   1,   1,    64.874,    18.489,     0.000,     0.000,     0.000,     0.000,   1,1, 0
   86,'1 ',1,   1,   1,   186.896,    53.265,     0.000,     0.000,     0.000,     0.000,   1,1, 0
   87,'1 ',1,   1,   1,    96.146,    27.402,     0.000,     0.000,     0.000,     0.000,   1,1, 0
   88,'1 ',1,   1,   1,    65.710,    18.727,     0.000,     0.000,     0.000,     0.000,   1,1, 0
   89,'1 ',1,   1,   1,   179.488,    51.154,     0.000,     0.000,     0.000,     0.000,   1,1, 0
   90,'1 ',1,   1,   1,   198.932,    56.696,     0.000,     0.000,     0.000,     0.000,   1,1, 0
   91,'1 ',1,   1,   1,    65.648,    18.710,     0.000,     0.000,     0.000,     0.000,   1,1, 0
0 / END OF LOAD DATA, BEGIN FIXED SHUNT DATA
0 / END OF FIXED SHUNT DATA, BEGIN GENERATOR DATA
    1,'1 ',  1098.165,   140.740,   952.770,  -186.225,1.04000,    0,  2246.860,   0.00000,   0.18000,   0.00000,   0.00000,1.00000,1,  100.0,  2042.600,   612.780,   1,1.0000,   0,1.0000,   0,1.0000,   0,1.0000,0, 1.0000
  110,'1 ',   366.713,   113.925,   382.297,   -43.964,1.04000,    0,   751.410,   0.00000,   0.18000,   0.00000,   0.00000,1.00000,1,  100.0,   683.100,   204.930,   1,1.0000,   0,1.0000,   0,1.0000,   0,1.0000,0, 1.0000
  111,'1 ',   243.831,    75.750,   174.635,   -22.215,1.04000,    0,   499.620,   0.00000,   0.18000,   0.00000,   0.00000,1.00000,1,  100.0,   454.200,   136.260,   1,1.0000,   0,1.0000,   0,1.0000,   0,1.0000,0, 1.0000
  112,'1 ',   692.089,   215.008,   601.347,  -117.537,1.04000,    0,  1418.120,   0.00000,   0.18000,   0.00000,   0.00000,1.00000,1,  100.0,  1289.200,   386.760,   1,1.0000,   0,1.0000,   0,1.0000,   0,1.0000,0, 1.0000
  113,'1 ',   340.032,   102.567,   354.483,   -40.766,1.04000,    0,   696.740,   0.00000,   0.18000,   0.00000,   0.00000,1.00000,1,  100.0,   633.400,   190.020,   1,1.0000,   0,1.0000,   0,1.0000,   0,1.0000,0, 1.0000
  114,'1 ',   340.032,   102.567,   354.483,   -40.766,1.04000,    0,   696.740,   0.00000,   0.18000,   0.00000,   0.00000,1.00000,1,  100.0,   633.400,   190.020,   1,1.0000,   0,1.0000,   0,1.0000,   0,1.0000,0, 1.0000
  115,'1 ',   147.737,    44.564,   105.812,   -13.460,1.04000,    0,   302.720,   0.00000,   0.18000,   0.00000,   0.00000,1.00000,1,  100.0,   275.200,    82.560,   1,1.0000,   0,1.0000,   0,1.0000,   0,1.0000,0, 1.0000
  116,'1 ',   364.619,    46.785,   380.113,   -43.713,1.04000,    0,   747.120,   0.00000,   0.18000,   0.00000,   0.00000,1.00000,1,  100.0,   679.200,   203.760,   1,1.0000,   0,1.0000,   0,1.0000,   0,1.0000,0, 1.0000
  117,'1 ',   364.619,    46.785,   380.113,   -43.713,1.04000,    0,   747.120,   0.00000,   0.18000,   0.00000,   0.00000,1.00000,1,  100.0,   679.200,   203.760,   1,1.0000,   0,1.0000,   0,1.0000,   0,1.0000,0, 1.0000
  118,'1 ',   364.619,    46.785,   380.113,   -43.713,1.04000,    0,   747.120,   0.00000,   0.18000,   0.00000,   0.00000,1.00000,1,  100.0,   679.200,   203.760,   1,1.0000,   0,1.0000,   0,1.0000,   0,1.0000,0, 1.0000
  119,'1 ',  1096.542,   140.700,   952.770,  -186.225,1.04000,    0,  2246.860,   0.00000,   0.18000,   0.00000,   0.00000,1.00000,1,  100.0,  2042.600,   612.780,   1,1.0000,   0,1.0000,   0,1.0000,   0,1.0000,0, 1.0000
  120,'1 ',   238.221,    56.251,   170.617,   -21.703,1.04000,    0,   488.125,   0.00000,   0.18000,   0.00000,   0.00000,1.00000,1,  100.0,   443.750,   133.125,   1,1.0000,   0,1.0000,   0,1.0000,   0,1.0000,0, 1.0000
  121,'1 ',   238.221,    56.251,   170.617,   -21.703,1.04000,    0,   488.125,   0.00000,   0.18000,   0.00000,   0.00000,1.00000,1,  100.0,   443.750,   133.125,   1,1.0000,   0,1.0000,   0,1.0000,   0,1.0000,0, 1.0000
  122,'1 ',   711.308,   167.960,   618.045,  -120.800,1.04000,    0,  1457.500,   0.00000,   0.18000,   0.00000,   0.00000,1.00000,1,  100.0,  1325.000,   397.500,   1,1.0000,   0,1.0000,   0,1.0000,   0,1.0000,0, 1.0000
  123,'1 ',   711.308,   167.960,   618.045,  -120.800,1.04000,    0,  1457.500,   0.00000,   0.18000,   0.00000,   0.00000,1.00000,1,  100.0,  1325.000,   397.500,   1,1.0000,   0,1.0000,   0,1.0000,   0,1.0000,0, 1.0000
  124,'1 ',   363.733,   107.580,   379.190,   -43.608,1.04000,    0,   745.305,   0.00000,   0.18000,   0.00000,   0.00000,1.00000,1,  100.0,   677.550,   203.265,   1,1.0000,   0,1.0000,   0,1.0000,   0,1.0000,0, 1.0000
  125,'1 ',   363.733,   107.580,   379.190,   -43.608,1.04000,    0,   745.305,   0.00000,   0.18000,   0.00000,   0.00000,1.00000,1,  100.0,   677.550,   203.265,   1,1.0000,   0,1.0000,   0,1.0000,   0,1.0000,0, 1.0000
  126,'1 ',   363.733,   107.580,   379.190,   -43.608,1.04000,    0,   745.305,   0.00000,   0.18000,   0.00000,   0.00000,1.00000,1,  100.0,   677.550,   203.265,   1,1.0000,   0,1.0000,   0,1.0000,   0,1.0000,0, 1.0000
  127,'1 ',   363.733,   107.580,   379.190,   -43.608,1.04000,    0,   745.305,   0.00000,   0.18000,   0.00000,   0.00000,1.00000,1,  100.0,   677.550,   203.265,   1,1.0000,   0,1.0000,   0,1.0000,   0,1.0000,0, 1.0000
  128,'1 ',   544.889,   161.159,   473.447,   -92.537,1.04000,    0,  1116.500,   0.00000,   0.18000,   0.00000,   0.00000,1.00000,1,  100.0,  1015.000,   304.500,   1,1.0000,   0,1.0000,   0,1.0000,   0,1.0000,0, 1.0000
  129,'1 ',   184.725,    45.446,   132.303,   -16.830,1.04000,    0,   378.510,   0.00000,   0.18000,   0.00000,   0.00000,1.00000,1,  100.0,   344.100,   103.230,   1,1.0000,   0,1.0000,   0,1.0000,   0,1.0000,0, 1.0000
  130,'1 ',   427.858,    67.206,   306.439,   -38.981,1.04000,    0,   876.700,   0.00000,   0.18000,   0.00000,   0.00000,1.00000,1,  100.0,   797.000,   239.100,   1,1.0000,   0,1.0000,   0,1.0000,   0,1.0000,0, 1.0000
  131,'1 ',   427.858,    67.206,   306.439,   -38.981,1.04000,    0,   876.700,   0.00000,   0.18000,   0.00000,   0.00000,1.00000,1,  100.0,   797.000,   239.100,   1,1.0000,   0,1.0000,   0,1.0000,   0,1.0000,0, 1.0000
  132,'1 ',   427.858,    67.206,   306.439,   -38.981,1.04000,    0,   876.700,   0.00000,   0.18000,   0.00000,   0.00000,1.00000,1,  100.0,   797.000,   239.100,   1,1.0000,   0,1.0000,   0,1.0000,   0,1.0000,0, 1.0000
  133,'1 ',   996.073,   156.458,   683.435,  -150.885,1.04000,    0,  2040.995,   0.00000,   0.18000,   0.00000,   0.00000,1.00000,1,  100.0,  1855.450,   556.635,   1,1.0000,   0,1.0000,   0,1.0000,   0,1.0000,0, 1.0000
  134,'1 ',   996.073,   156.458,   683.435,  -150.885,1.04000,    0,  2040.995,   0.00000,   0.18000,   0.00000,   0.00000,1.00000,1,  100.0,  1855.450,   556.635,   1,1.0000,   0,1.0000,   0,1.0000,   0,1.0000,0, 1.0000
  135,'1 ',    24.533,    17.359,    17.571,    -2.235,1.04000,    0,    50.270,   0.00000,   0.18000,   0.00000,   0.00000,1.00000,1,  100.0,    45.700,    13.710,   1,1.0000,   0,1.0000,   0,1.0000,   0,1.0000,0, 1.0000
0 / END OF GENERATOR DATA, BEGIN BRANCH DATA
     2,    14,'1 ',5.46194E-3,3.88993E-2,7.13682E-2, 402.36,9999.00,9999.00,  0.00000,  0.00000,  0.00000,  0.00000, 1,1,   0.00,   1,1.0000,   0,1.0000,   0,1.0000,   0,1.0000
     2,    21,'1 ',3.17920E-3,2.26419E-2,4.15408E-2, 402.36,9999.00,9999.00,  0.00000,  0.00000,  0.00000,  0.00000, 1,1,   0.00,   1,1.0000,   0,1.0000,   0,1.0000,   0,1.0000
    19,     3,'1 ',5.44849E-3,3.88035E-2,7.11924E-2, 402.36,9999.00,9999.00,  0.00000,  0.00000,  0.00000,  0.00000, 1,1,   0.00,   1,1.0000,   0,1.0000,   0,1.0000,   0,1.0000
   141,     3,'1 ',2.80833E-3,2.00006E-2,3.66949E-2, 402.36,9999.00,9999.00,  0.00000,  0.00000,  0.00000,  0.00000, 1,1,   0.00,   1,1.0000,   0,1.0000,   0,1.0000,   0,1.0000
     4,    18,'1 ',1.17709E-3,8.38313E-3,1.53804E-2, 402.36,9999.00,9999.00,  0.00000,  0.00000,  0.00000,  0.00000, 1,1,   0.00,   1,1.0000,   0,1.0000,   0,1.0000,   0,1.0000
     4,    19,'1 ',1.47107E-3,1.04768E-2,1.92217E-2, 402.36,9999.00,9999.00,  0.00000,  0.00000,  0.00000,  0.00000, 1,1,   0.00,   1,1.0000,   0,1.0000,   0,1.0000,   0,1.0000
     4,    30,'1 ',1.10861E-3,7.89542E-3,1.44856E-2, 402.36,9999.00,9999.00,  0.00000,  0.00000,  0.00000,  0.00000, 1,1,   0.00,   1,1.0000,   0,1.0000,   0,1.0000,   0,1.0000
     5,    16,'1 ',2.54463E-3,1.81226E-2,3.32493E-2, 402.36,9999.00,9999.00,  0.00000,  0.00000,  0.00000,  0.00000, 1,1,   0.00,   1,1.0000,   0,1.0000,   0,1.0000,   0,1.0000
     5,    30,'1 ',1.63041E-3,1.16116E-2,2.13037E-2, 402.36,9999.00,9999.00,  0.00000,  0.00000,  0.00000,  0.00000, 1,1,   0.00,   1,1.0000,   0,1.0000,   0,1.0000,   0,1.0000
     6,    13,'1 ',2.81792E-3,2.00689E-2,3.68202E-2, 402.36,9999.00,9999.00,  0.00000,  0.00000,  0.00000,  0.00000, 1,1,   0.00,   1,1.0000,   0,1.0000,   0,1.0000,   0,1.0000
     6,    14,'1 ',5.20802E-3,3.70909E-2,6.80503E-2, 402.36,9999.00,9999.00,  0.00000,  0.00000,  0.00000,  0.00000, 1,1,   0.00,   1,1.0000,   0,1.0000,   0,1.0000,   0,1.0000
     6,    28,'1 ',2.55189E-3,1.81743E-2,3.33442E-2, 402.36,9999.00,9999.00,  0.00000,  0.00000,  0.00000,  0.00000, 1,1,   0.00,   1,1.0000,   0,1.0000,   0,1.0000,   0,1.0000
     7,     8,'1 ',6.59927E-3,4.69993E-2,8.62290E-2, 402.36,9999.00,9999.00,  0.00000,  0.00000,  0.00000,  0.00000, 1,1,   0.00,   1,1.0000,   0,1.0000,   0,1.0000,   0,1.0000
     7,    38,'1 ',5.88922E-3,4.19424E-2,7.69511E-2, 402.36,9999.00,9999.00,  0.00000,  0.00000,  0.00000,  0.00000, 1,1,   0.00,   1,1.0000,   0,1.0000,   0,1.0000,   0,1.0000
     8,    23,'1 ',2.24172E-3,1.59653E-2,2.92913E-2, 402.36,9999.00,9999.00,  0.00000,  0.00000,  0.00000,  0.00000, 1,1,   0.00,   1,1.0000,   0,1.0000,   0,1.0000,   0,1.0000
     9,    23,'1 ',5.67921E-3,4.04467E-2,7.42070E-2, 402.36,9999.00,9999.00,  0.00000,  0.00000,  0.00000,  0.00000, 1,1,   0.00,   1,1.0000,   0,1.0000,   0,1.0000,   0,1.0000
     9,    26,'1 ',4.68229E-3,3.33467E-2,6.11809E-2, 402.36,9999.00,9999.00,  0.00000,  0.00000,  0.00000,  0.00000, 1,1,   0.00,   1,1.0000,   0,1.0000,   0,1.0000,   0,1.0000
     9,    39,'1 ',5.48739E-3,3.90805E-2,7.17006E-2, 402.36,9999.00,9999.00,  0.00000,  0.00000,  0.00000,  0.00000, 1,1,   0.00,   1,1.0000,   0,1.0000,   0,1.0000,   0,1.0000
    10,    25,'1 ',5.91281E-3,4.21104E-2,7.72594E-2, 402.36,9999.00,9999.00,  0.00000,  0.00000,  0.00000,  0.00000, 1,1,   0.00,   1,1.0000,   0,1.0000,   0,1.0000,   0,1.0000
    10,   141,'1 ',4.37448E-3,3.11546E-2,5.71589E-2, 402.36,9999.00,9999.00,  0.00000,  0.00000,  0.00000,  0.00000, 1,1,   0.00,   1,1.0000,   0,1.0000,   0,1.0000,   0,1.0000
    11,    14,'1 ',2.52480E-3,1.79814E-2,3.29902E-2, 402.36,9999.00,9999.00,  0.00000,  0.00000,  0.00000,  0.00000, 1,1,   0.00,   1,1.0000,   0,1.0000,   0,1.0000,   0,1.0000
    12,    13,'1 ',5.15872E-3,3.67398E-2,6.74061E-2, 402.36,9999.00,9999.00,  0.00000,  0.00000,  0.00000,  0.00000, 1,1,   0.00,   1,1.0000,   0,1.0000,   0,1.0000,   0,1.0000
    12,   143,'1 ',6.50676E-3,4.63404E-2,8.50202E-2, 402.36,9999.00,9999.00,  0.00000,  0.00000,  0.00000,  0.00000, 1,1,   0.00,   1,1.0000,   0,1.0000,   0,1.0000,   0,1.0000
    13,    16,'1 ',2.70323E-3,1.92521E-2,3.53216E-2, 402.36,9999.00,9999.00,  0.00000,  0.00000,  0.00000,  0.00000, 1,1,   0.00,   1,1.0000,   0,1.0000,   0,1.0000,   0,1.0000
    15,    17,'1 ',2.50029E-3,1.78068E-2,3.26700E-2, 402.36,9999.00,9999.00,  0.00000,  0.00000,  0.00000,  0.00000, 1,1,   0.00,   1,1.0000,   0,1.0000,   0,1.0000,   0,1.0000
   141,    15,'1 ',2.66416E-3,1.89738E-2,3.48111E-2, 402.36,9999.00,9999.00,  0.00000,  0.00000,  0.00000,  0.00000, 1,1,   0.00,   1,1.0000,   0,1.0000,   0,1.0000,   0,1.0000
    16,    26,'1 ',3.14332E-3,2.23864E-2,4.10720E-2, 402.36,9999.00,9999.00,  0.00000,  0.00000,  0.00000,  0.00000, 1,1,   0.00,   1,1.0000,   0,1.0000,   0,1.0000,   0,1.0000
    17,    21,'1 ',1.84802E-3,1.31614E-2,2.41470E-2, 402.36,9999.00,9999.00,  0.00000,  0.00000,  0.00000,  0.00000, 1,1,   0.00,   1,1.0000,   0,1.0000,   0,1.0000,   0,1.0000
   141,    17,'1 ',2.46898E-3,1.75838E-2,3.22608E-2, 402.36,9999.00,9999.00,  0.00000,  0.00000,  0.00000,  0.00000, 1,1,   0.00,   1,1.0000,   0,1.0000,   0,1.0000,   0,1.0000
   141,    17,'2 ',2.46898E-3,1.75838E-2,3.22608E-2, 402.36,9999.00,9999.00,  0.00000,  0.00000,  0.00000,  0.00000, 1,1,   0.00,   1,1.0000,   0,1.0000,   0,1.0000,   0,1.0000
    18,    22,'1 ',7.10538E-4,5.06037E-3,9.28421E-3, 402.36,9999.00,9999.00,  0.00000,  0.00000,  0.00000,  0.00000, 1,1,   0.00,   1,1.0000,   0,1.0000,   0,1.0000,   0,1.0000
    19,    23,'1 ',2.01677E-3,1.43632E-2,2.63520E-2, 402.36,9999.00,9999.00,  0.00000,  0.00000,  0.00000,  0.00000, 1,1,   0.00,   1,1.0000,   0,1.0000,   0,1.0000,   0,1.0000
    83,    20,'1 ',6.42012E-3,4.57234E-2,8.38881E-2, 402.36,9999.00,9999.00,  0.00000,  0.00000,  0.00000,  0.00000, 1,1,   0.00,   1,1.0000,   0,1.0000,   0,1.0000,   0,1.0000
    20,   143,'1 ',6.86187E-3,4.88695E-2,8.96603E-2, 402.36,9999.00,9999.00,  0.00000,  0.00000,  0.00000,  0.00000, 1,1,   0.00,   1,1.0000,   0,1.0000,   0,1.0000,   0,1.0000
    21,    29,'1 ',1.12223E-3,7.99238E-3,1.46635E-2, 402.36,9999.00,9999.00,  0.00000,  0.00000,  0.00000,  0.00000, 1,1,   0.00,   1,1.0000,   0,1.0000,   0,1.0000,   0,1.0000
    22,    29,'1 ',5.88724E-4,4.19283E-3,7.69253E-3, 402.36,9999.00,9999.00,  0.00000,  0.00000,  0.00000,  0.00000, 1,1,   0.00,   1,1.0000,   0,1.0000,   0,1.0000,   0,1.0000
    22,    30,'1 ',1.19378E-3,8.50199E-3,1.55985E-2, 402.36,9999.00,9999.00,  0.00000,  0.00000,  0.00000,  0.00000, 1,1,   0.00,   1,1.0000,   0,1.0000,   0,1.0000,   0,1.0000
    22,    30,'2 ',1.19378E-3,8.50199E-3,1.55985E-2, 402.36,9999.00,9999.00,  0.00000,  0.00000,  0.00000,  0.00000, 1,1,   0.00,   1,1.0000,   0,1.0000,   0,1.0000,   0,1.0000
    84,    24,'1 ',5.01422E-3,3.57107E-2,6.55180E-2, 402.36,9999.00,9999.00,  0.00000,  0.00000,  0.00000,  0.00000, 1,1,   0.00,   1,1.0000,   0,1.0000,   0,1.0000,   0,1.0000
    24,   143,'1 ',6.76748E-4,4.81972E-3,8.84269E-3, 402.36,9999.00,9999.00,  0.00000,  0.00000,  0.00000,  0.00000, 1,1,   0.00,   1,1.0000,   0,1.0000,   0,1.0000,   0,1.0000
    90,    25,'1 ',5.14377E-3,3.66333E-2,6.72107E-2, 402.36,9999.00,9999.00,  0.00000,  0.00000,  0.00000,  0.00000, 1,1,   0.00,   1,1.0000,   0,1.0000,   0,1.0000,   0,1.0000
    91,    25,'1 ',6.10975E-3,4.35130E-2,7.98328E-2, 402.36,9999.00,9999.00,  0.00000,  0.00000,  0.00000,  0.00000, 1,1,   0.00,   1,1.0000,   0,1.0000,   0,1.0000,   0,1.0000
    89,    26,'1 ',6.60642E-3,4.70502E-2,8.63224E-2, 402.36,9999.00,9999.00,  0.00000,  0.00000,  0.00000,  0.00000, 1,1,   0.00,   1,1.0000,   0,1.0000,   0,1.0000,   0,1.0000
   140,    27,'1 ',2.62522E-3,1.86965E-2,3.43023E-2, 402.36,9999.00,9999.00,  0.00000,  0.00000,  0.00000,  0.00000, 1,1,   0.00,   1,1.0000,   0,1.0000,   0,1.0000,   0,1.0000
    28,    29,'1 ',1.08839E-3,7.75136E-3,1.42213E-2, 402.36,9999.00,9999.00,  0.00000,  0.00000,  0.00000,  0.00000, 1,1,   0.00,   1,1.0000,   0,1.0000,   0,1.0000,   0,1.0000
    31,    38,'1 ',5.61068E-3,3.99587E-2,7.33117E-2, 402.36,9999.00,9999.00,  0.00000,  0.00000,  0.00000,  0.00000, 1,1,   0.00,   1,1.0000,   0,1.0000,   0,1.0000,   0,1.0000
    31,    40,'1 ',3.58126E-3,2.55053E-2,4.67944E-2, 402.36,9999.00,9999.00,  0.00000,  0.00000,  0.00000,  0.00000, 1,1,   0.00,   1,1.0000,   0,1.0000,   0,1.0000,   0,1.0000
    31,    41,'1 ',3.88158E-3,2.76441E-2,5.07184E-2, 402.36,9999.00,9999.00,  0.00000,  0.00000,  0.00000,  0.00000, 1,1,   0.00,   1,1.0000,   0,1.0000,   0,1.0000,   0,1.0000
    32,    36,'1 ',8.56475E-3,6.09972E-2,1.11911E-1, 402.36,9999.00,9999.00,  0.00000,  0.00000,  0.00000,  0.00000, 1,1,   0.00,   1,1.0000,   0,1.0000,   0,1.0000,   0,1.0000
    32,    40,'1 ',1.77580E-3,1.26470E-2,2.32033E-2, 402.36,9999.00,9999.00,  0.00000,  0.00000,  0.00000,  0.00000, 1,1,   0.00,   1,1.0000,   0,1.0000,   0,1.0000,   0,1.0000
   145,    32,'1 ',2.41588E-3,1.72056E-2,3.15669E-2, 402.36,9999.00,9999.00,  0.00000,  0.00000,  0.00000,  0.00000, 1,1,   0.00,   1,1.0000,   0,1.0000,   0,1.0000,   0,1.0000
    33,    37,'1 ',5.39231E-3,3.84034E-2,7.04583E-2, 402.36,9999.00,9999.00,  0.00000,  0.00000,  0.00000,  0.00000, 1,1,   0.00,   1,1.0000,   0,1.0000,   0,1.0000,   0,1.0000
    61,    33,'1 ',6.06924E-3,4.32244E-2,7.93033E-2, 402.36,9999.00,9999.00,  0.00000,  0.00000,  0.00000,  0.00000, 1,1,   0.00,   1,1.0000,   0,1.0000,   0,1.0000,   0,1.0000
    35,    34,'1 ',3.34193E-3,2.38009E-2,4.36672E-2, 402.36,9999.00,9999.00,  0.00000,  0.00000,  0.00000,  0.00000, 1,1,   0.00,   1,1.0000,   0,1.0000,   0,1.0000,   0,1.0000
    34,    36,'1 ',5.27071E-3,3.75374E-2,6.88695E-2, 402.36,9999.00,9999.00,  0.00000,  0.00000,  0.00000,  0.00000, 1,1,   0.00,   1,1.0000,   0,1.0000,   0,1.0000,   0,1.0000
    35,    37,'1 ',4.59949E-3,3.27570E-2,6.00990E-2, 402.36,9999.00,9999.00,  0.00000,  0.00000,  0.00000,  0.00000, 1,1,   0.00,   1,1.0000,   0,1.0000,   0,1.0000,   0,1.0000
    35,   145,'1 ',9.90708E-4,7.05571E-3,1.29450E-2, 402.36,9999.00,9999.00,  0.00000,  0.00000,  0.00000,  0.00000, 1,1,   0.00,   1,1.0000,   0,1.0000,   0,1.0000,   0,1.0000
    35,   145,'2 ',9.90708E-4,7.05571E-3,1.29450E-2, 402.36,9999.00,9999.00,  0.00000,  0.00000,  0.00000,  0.00000, 1,1,   0.00,   1,1.0000,   0,1.0000,   0,1.0000,   0,1.0000
    37,    38,'1 ',5.04303E-3,3.59159E-2,6.58944E-2, 402.36,9999.00,9999.00,  0.00000,  0.00000,  0.00000,  0.00000, 1,1,   0.00,   1,1.0000,   0,1.0000,   0,1.0000,   0,1.0000
   140,    39,'1 ',3.78495E-3,2.69560E-2,4.94559E-2, 402.36,9999.00,9999.00,  0.00000,  0.00000,  0.00000,  0.00000, 1,1,   0.00,   1,1.0000,   0,1.0000,   0,1.0000,   0,1.0000
    40,    41,'1 ',1.72589E-3,1.22916E-2,2.25513E-2, 402.36,9999.00,9999.00,  0.00000,  0.00000,  0.00000,  0.00000, 1,1,   0.00,   1,1.0000,   0,1.0000,   0,1.0000,   0,1.0000
   145,    40,'1 ',2.18291E-3,1.55465E-2,2.85229E-2, 402.36,9999.00,9999.00,  0.00000,  0.00000,  0.00000,  0.00000, 1,1,   0.00,   1,1.0000,   0,1.0000,   0,1.0000,   0,1.0000
    42,    43,'1 ',1.33367E-3,9.49822E-3,1.74263E-2, 402.36,9999.00,9999.00,  0.00000,  0.00000,  0.00000,  0.00000, 1,1,   0.00,   1,1.0000,   0,1.0000,   0,1.0000,   0,1.0000
    44,    42,'1 ',5.84525E-3,4.16292E-2,7.63766E-2, 402.36,9999.00,9999.00,  0.00000,  0.00000,  0.00000,  0.00000, 1,1,   0.00,   1,1.0000,   0,1.0000,   0,1.0000,   0,1.0000
    45,    42,'1 ',3.31197E-3,2.35875E-2,4.32757E-2, 402.36,9999.00,9999.00,  0.00000,  0.00000,  0.00000,  0.00000, 1,1,   0.00,   1,1.0000,   0,1.0000,   0,1.0000,   0,1.0000
    47,    43,'1 ',2.91046E-3,2.07280E-2,3.80294E-2, 402.36,9999.00,9999.00,  0.00000,  0.00000,  0.00000,  0.00000, 1,1,   0.00,   1,1.0000,   0,1.0000,   0,1.0000,   0,1.0000
    44,   149,'1 ',3.58551E-3,2.55356E-2,4.68499E-2, 402.36,9999.00,9999.00,  0.00000,  0.00000,  0.00000,  0.00000, 1,1,   0.00,   1,1.0000,   0,1.0000,   0,1.0000,   0,1.0000
    45,    48,'1 ',3.60141E-3,2.56489E-2,4.70577E-2, 402.36,9999.00,9999.00,  0.00000,  0.00000,  0.00000,  0.00000, 1,1,   0.00,   1,1.0000,   0,1.0000,   0,1.0000,   0,1.0000
    46,    47,'1 ',3.53606E-3,2.51834E-2,4.62038E-2, 402.36,9999.00,9999.00,  0.00000,  0.00000,  0.00000,  0.00000, 1,1,   0.00,   1,1.0000,   0,1.0000,   0,1.0000,   0,1.0000
    46,   149,'1 ',2.20957E-3,1.57363E-2,2.88712E-2, 402.36,9999.00,9999.00,  0.00000,  0.00000,  0.00000,  0.00000, 1,1,   0.00,   1,1.0000,   0,1.0000,   0,1.0000,   0,1.0000
    47,    48,'1 ',8.57949E-3,6.11022E-2,1.12103E-1, 402.36,9999.00,9999.00,  0.00000,  0.00000,  0.00000,  0.00000, 1,1,   0.00,   1,1.0000,   0,1.0000,   0,1.0000,   0,1.0000
    49,    52,'1 ',3.07497E-3,2.18996E-2,4.01789E-2, 402.36,9999.00,9999.00,  0.00000,  0.00000,  0.00000,  0.00000, 1,1,   0.00,   1,1.0000,   0,1.0000,   0,1.0000,   0,1.0000
    49,    63,'1 ',2.37986E-3,1.69491E-2,3.10963E-2, 402.36,9999.00,9999.00,  0.00000,  0.00000,  0.00000,  0.00000, 1,1,   0.00,   1,1.0000,   0,1.0000,   0,1.0000,   0,1.0000
    50,    55,'1 ',4.90597E-3,3.49398E-2,6.41036E-2, 402.36,9999.00,9999.00,  0.00000,  0.00000,  0.00000,  0.00000, 1,1,   0.00,   1,1.0000,   0,1.0000,   0,1.0000,   0,1.0000
    50,    56,'1 ',2.61337E-3,1.86122E-2,3.41475E-2, 402.36,9999.00,9999.00,  0.00000,  0.00000,  0.00000,  0.00000, 1,1,   0.00,   1,1.0000,   0,1.0000,   0,1.0000,   0,1.0000
    50,    64,'1 ',2.84170E-3,2.02383E-2,3.71310E-2, 402.36,9999.00,9999.00,  0.00000,  0.00000,  0.00000,  0.00000, 1,1,   0.00,   1,1.0000,   0,1.0000,   0,1.0000,   0,1.0000
    51,    54,'1 ',3.22261E-3,2.29511E-2,4.21080E-2, 402.36,9999.00,9999.00,  0.00000,  0.00000,  0.00000,  0.00000, 1,1,   0.00,   1,1.0000,   0,1.0000,   0,1.0000,   0,1.0000
    51,    58,'1 ',5.52903E-3,3.93771E-2,7.22447E-2, 402.36,9999.00,9999.00,  0.00000,  0.00000,  0.00000,  0.00000, 1,1,   0.00,   1,1.0000,   0,1.0000,   0,1.0000,   0,1.0000
    51,   149,'1 ',3.81389E-3,2.71621E-2,4.98340E-2, 402.36,9999.00,9999.00,  0.00000,  0.00000,  0.00000,  0.00000, 1,1,   0.00,   1,1.0000,   0,1.0000,   0,1.0000,   0,1.0000
    52,    56,'1 ',2.40657E-3,1.71393E-2,3.14453E-2, 402.36,9999.00,9999.00,  0.00000,  0.00000,  0.00000,  0.00000, 1,1,   0.00,   1,1.0000,   0,1.0000,   0,1.0000,   0,1.0000
    52,    60,'1 ',3.85545E-3,2.74581E-2,5.03770E-2, 402.36,9999.00,9999.00,  0.00000,  0.00000,  0.00000,  0.00000, 1,1,   0.00,   1,1.0000,   0,1.0000,   0,1.0000,   0,1.0000
    53,    62,'1 ',2.04791E-3,1.45850E-2,2.67589E-2, 402.36,9999.00,9999.00,  0.00000,  0.00000,  0.00000,  0.00000, 1,1,   0.00,   1,1.0000,   0,1.0000,   0,1.0000,   0,1.0000
    53,   138,'1 ',1.93272E-3,1.37646E-2,2.52538E-2, 402.36,9999.00,9999.00,  0.00000,  0.00000,  0.00000,  0.00000, 1,1,   0.00,   1,1.0000,   0,1.0000,   0,1.0000,   0,1.0000
    53,   138,'2 ',1.93272E-3,1.37646E-2,2.52538E-2, 402.36,9999.00,9999.00,  0.00000,  0.00000,  0.00000,  0.00000, 1,1,   0.00,   1,1.0000,   0,1.0000,   0,1.0000,   0,1.0000
    54,    60,'1 ',4.25086E-3,3.02741E-2,5.55436E-2, 402.36,9999.00,9999.00,  0.00000,  0.00000,  0.00000,  0.00000, 1,1,   0.00,   1,1.0000,   0,1.0000,   0,1.0000,   0,1.0000
    55,   138,'1 ',7.77802E-3,5.53942E-2,1.01631E-1, 402.36,9999.00,9999.00,  0.00000,  0.00000,  0.00000,  0.00000, 1,1,   0.00,   1,1.0000,   0,1.0000,   0,1.0000,   0,1.0000
    56,    58,'1 ',6.23504E-3,4.44053E-2,8.14698E-2, 402.36,9999.00,9999.00,  0.00000,  0.00000,  0.00000,  0.00000, 1,1,   0.00,   1,1.0000,   0,1.0000,   0,1.0000,   0,1.0000
    56,    63,'1 ',2.05803E-3,1.46571E-2,2.68911E-2, 402.36,9999.00,9999.00,  0.00000,  0.00000,  0.00000,  0.00000, 1,1,   0.00,   1,1.0000,   0,1.0000,   0,1.0000,   0,1.0000
    57,    59,'1 ',5.48952E-3,3.90958E-2,7.17285E-2, 402.36,9999.00,9999.00,  0.00000,  0.00000,  0.00000,  0.00000, 1,1,   0.00,   1,1.0000,   0,1.0000,   0,1.0000,   0,1.0000
    57,    90,'1 ',5.91954E-3,4.21583E-2,7.73474E-2, 402.36,9999.00,9999.00,  0.00000,  0.00000,  0.00000,  0.00000, 1,1,   0.00,   1,1.0000,   0,1.0000,   0,1.0000,   0,1.0000
    59,   138,'1 ',1.50382E-3,1.07100E-2,1.96496E-2, 402.36,9999.00,9999.00,  0.00000,  0.00000,  0.00000,  0.00000, 1,1,   0.00,   1,1.0000,   0,1.0000,   0,1.0000,   0,1.0000
    61,    62,'1 ',3.23355E-3,2.30290E-2,4.22511E-2, 402.36,9999.00,9999.00,  0.00000,  0.00000,  0.00000,  0.00000, 1,1,   0.00,   1,1.0000,   0,1.0000,   0,1.0000,   0,1.0000
    62,    64,'1 ',1.41303E-3,1.00634E-2,1.84632E-2, 402.36,9999.00,9999.00,  0.00000,  0.00000,  0.00000,  0.00000, 1,1,   0.00,   1,1.0000,   0,1.0000,   0,1.0000,   0,1.0000
    63,    64,'1 ',1.39272E-3,9.91880E-3,1.81979E-2, 402.36,9999.00,9999.00,  0.00000,  0.00000,  0.00000,  0.00000, 1,1,   0.00,   1,1.0000,   0,1.0000,   0,1.0000,   0,1.0000
    65,    73,'1 ',4.65849E-3,3.31772E-2,6.08699E-2, 402.36,9999.00,9999.00,  0.00000,  0.00000,  0.00000,  0.00000, 1,1,   0.00,   1,1.0000,   0,1.0000,   0,1.0000,   0,1.0000
    65,    83,'1 ',5.02422E-3,3.57819E-2,6.56486E-2, 402.36,9999.00,9999.00,  0.00000,  0.00000,  0.00000,  0.00000, 1,1,   0.00,   1,1.0000,   0,1.0000,   0,1.0000,   0,1.0000
    65,    86,'1 ',4.71285E-3,3.35644E-2,6.15803E-2, 402.36,9999.00,9999.00,  0.00000,  0.00000,  0.00000,  0.00000, 1,1,   0.00,   1,1.0000,   0,1.0000,   0,1.0000,   0,1.0000
    66,    67,'1 ',3.89967E-3,2.77730E-2,5.09548E-2, 402.36,9999.00,9999.00,  0.00000,  0.00000,  0.00000,  0.00000, 1,1,   0.00,   1,1.0000,   0,1.0000,   0,1.0000,   0,1.0000
    66,    71,'1 ',2.11938E-3,1.50940E-2,2.76927E-2, 402.36,9999.00,9999.00,  0.00000,  0.00000,  0.00000,  0.00000, 1,1,   0.00,   1,1.0000,   0,1.0000,   0,1.0000,   0,1.0000
    67,    75,'1 ',5.27519E-3,3.75693E-2,6.89280E-2, 402.36,9999.00,9999.00,  0.00000,  0.00000,  0.00000,  0.00000, 1,1,   0.00,   1,1.0000,   0,1.0000,   0,1.0000,   0,1.0000
    67,   136,'1 ',4.06587E-3,2.89566E-2,5.31264E-2, 402.36,9999.00,9999.00,  0.00000,  0.00000,  0.00000,  0.00000, 1,1,   0.00,   1,1.0000,   0,1.0000,   0,1.0000,   0,1.0000
    67,   136,'2 ',4.06587E-3,2.89566E-2,5.31264E-2, 402.36,9999.00,9999.00,  0.00000,  0.00000,  0.00000,  0.00000, 1,1,   0.00,   1,1.0000,   0,1.0000,   0,1.0000,   0,1.0000
    68,    73,'1 ',5.53205E-3,3.93986E-2,7.22842E-2, 402.36,9999.00,9999.00,  0.00000,  0.00000,  0.00000,  0.00000, 1,1,   0.00,   1,1.0000,   0,1.0000,   0,1.0000,   0,1.0000
    68,    85,'1 ',5.59173E-3,3.98237E-2,7.30640E-2, 402.36,9999.00,9999.00,  0.00000,  0.00000,  0.00000,  0.00000, 1,1,   0.00,   1,1.0000,   0,1.0000,   0,1.0000,   0,1.0000
    69,    70,'1 ',5.81191E-3,4.13918E-2,7.59410E-2, 402.36,9999.00,9999.00,  0.00000,  0.00000,  0.00000,  0.00000, 1,1,   0.00,   1,1.0000,   0,1.0000,   0,1.0000,   0,1.0000
    69,    87,'1 ',5.41355E-3,3.85547E-2,7.07359E-2, 402.36,9999.00,9999.00,  0.00000,  0.00000,  0.00000,  0.00000, 1,1,   0.00,   1,1.0000,   0,1.0000,   0,1.0000,   0,1.0000
    70,    72,'1 ',7.80297E-3,5.55718E-2,1.01957E-1, 402.36,9999.00,9999.00,  0.00000,  0.00000,  0.00000,  0.00000, 1,1,   0.00,   1,1.0000,   0,1.0000,   0,1.0000,   0,1.0000
    70,   136,'1 ',1.68326E-3,1.19880E-2,2.19942E-2, 402.36,9999.00,9999.00,  0.00000,  0.00000,  0.00000,  0.00000, 1,1,   0.00,   1,1.0000,   0,1.0000,   0,1.0000,   0,1.0000
    71,    72,'1 ',2.48197E-3,1.76763E-2,3.24306E-2, 402.36,9999.00,9999.00,  0.00000,  0.00000,  0.00000,  0.00000, 1,1,   0.00,   1,1.0000,   0,1.0000,   0,1.0000,   0,1.0000
    71,    74,'1 ',1.07996E-3,7.69138E-3,1.41113E-2, 402.36,9999.00,9999.00,  0.00000,  0.00000,  0.00000,  0.00000, 1,1,   0.00,   1,1.0000,   0,1.0000,   0,1.0000,   0,1.0000
    71,    74,'2 ',1.07996E-3,7.69138E-3,1.41113E-2, 402.36,9999.00,9999.00,  0.00000,  0.00000,  0.00000,  0.00000, 1,1,   0.00,   1,1.0000,   0,1.0000,   0,1.0000,   0,1.0000
    71,    82,'1 ',1.73773E-3,1.23759E-2,2.27059E-2, 402.36,9999.00,9999.00,  0.00000,  0.00000,  0.00000,  0.00000, 1,1,   0.00,   1,1.0000,   0,1.0000,   0,1.0000,   0,1.0000
    73,   136,'1 ',5.50059E-3,3.91746E-2,7.18732E-2, 402.36,9999.00,9999.00,  0.00000,  0.00000,  0.00000,  0.00000, 1,1,   0.00,   1,1.0000,   0,1.0000,   0,1.0000,   0,1.0000
    74,    78,'1 ',9.58115E-4,6.82359E-3,1.25192E-2, 402.36,9999.00,9999.00,  0.00000,  0.00000,  0.00000,  0.00000, 1,1,   0.00,   1,1.0000,   0,1.0000,   0,1.0000,   0,1.0000
    75,    78,'1 ',1.42790E-3,1.01693E-2,1.86575E-2, 402.36,9999.00,9999.00,  0.00000,  0.00000,  0.00000,  0.00000, 1,1,   0.00,   1,1.0000,   0,1.0000,   0,1.0000,   0,1.0000
    76,    77,'1 ',1.91092E-3,1.36094E-2,2.49690E-2, 402.36,9999.00,9999.00,  0.00000,  0.00000,  0.00000,  0.00000, 1,1,   0.00,   1,1.0000,   0,1.0000,   0,1.0000,   0,1.0000
    76,    78,'1 ',1.21345E-3,8.64202E-3,1.58554E-2, 402.36,9999.00,9999.00,  0.00000,  0.00000,  0.00000,  0.00000, 1,1,   0.00,   1,1.0000,   0,1.0000,   0,1.0000,   0,1.0000
    76,    79,'1 ',1.02937E-3,7.33103E-3,1.34502E-2, 402.36,9999.00,9999.00,  0.00000,  0.00000,  0.00000,  0.00000, 1,1,   0.00,   1,1.0000,   0,1.0000,   0,1.0000,   0,1.0000
    77,    81,'1 ',2.04028E-3,1.45307E-2,2.66592E-2, 402.36,9999.00,9999.00,  0.00000,  0.00000,  0.00000,  0.00000, 1,1,   0.00,   1,1.0000,   0,1.0000,   0,1.0000,   0,1.0000
    79,    80,'1 ',1.35588E-3,9.65642E-3,1.77165E-2, 402.36,9999.00,9999.00,  0.00000,  0.00000,  0.00000,  0.00000, 1,1,   0.00,   1,1.0000,   0,1.0000,   0,1.0000,   0,1.0000
    79,    81,'1 ',1.15126E-3,8.19916E-3,1.50429E-2, 402.36,9999.00,9999.00,  0.00000,  0.00000,  0.00000,  0.00000, 1,1,   0.00,   1,1.0000,   0,1.0000,   0,1.0000,   0,1.0000
    80,    82,'1 ',8.73334E-4,6.21979E-3,1.14114E-2, 402.36,9999.00,9999.00,  0.00000,  0.00000,  0.00000,  0.00000, 1,1,   0.00,   1,1.0000,   0,1.0000,   0,1.0000,   0,1.0000
    85,    84,'1 ',5.90558E-3,4.20589E-2,7.71649E-2, 402.36,9999.00,9999.00,  0.00000,  0.00000,  0.00000,  0.00000, 1,1,   0.00,   1,1.0000,   0,1.0000,   0,1.0000,   0,1.0000
    87,   147,'1 ',4.64774E-3,3.31006E-2,6.07294E-2, 402.36,9999.00,9999.00,  0.00000,  0.00000,  0.00000,  0.00000, 1,1,   0.00,   1,1.0000,   0,1.0000,   0,1.0000,   0,1.0000
    88,    89,'1 ',8.43050E-3,6.00411E-2,1.10157E-1, 402.36,9999.00,9999.00,  0.00000,  0.00000,  0.00000,  0.00000, 1,1,   0.00,   1,1.0000,   0,1.0000,   0,1.0000,   0,1.0000
    88,   147,'1 ',3.82026E-3,2.72075E-2,4.99173E-2, 402.36,9999.00,9999.00,  0.00000,  0.00000,  0.00000,  0.00000, 1,1,   0.00,   1,1.0000,   0,1.0000,   0,1.0000,   0,1.0000
    90,    91,'1 ',6.11022E-3,4.35163E-2,7.98388E-2, 402.36,9999.00,9999.00,  0.00000,  0.00000,  0.00000,  0.00000, 1,1,   0.00,   1,1.0000,   0,1.0000,   0,1.0000,   0,1.0000
    92,   100,'1 ',5.95670E-5,1.25816E-3,1.38865E-1,3585.35,9999.00,9999.00,  0.00000,  0.00000,  0.00000,  0.00000, 1,1,   0.00,   1,1.0000,   0,1.0000,   0,1.0000,   0,1.0000
   109,    92,'1 ',1.01787E-4,2.14993E-3,2.37290E-1,3585.35,9999.00,9999.00,  0.00000,  0.00000,  0.00000,  0.00000, 1,1,   0.00,   1,1.0000,   0,1.0000,   0,1.0000,   0,1.0000
    93,    97,'1 ',4.76356E-4,1.00615E-2,1.11050E0,3585.35,9999.00,9999.00,  0.00000,  0.00000,  0.00000,  0.00000, 1,1,   0.00,   1,1.0000,   0,1.0000,   0,1.0000,   0,1.0000
   109,    93,'1 ',2.96110E-4,6.25438E-3,6.90303E-1,3585.35,9999.00,9999.00,  0.00000,  0.00000,  0.00000,  0.00000, 1,1,   0.00,   1,1.0000,   0,1.0000,   0,1.0000,   0,1.0000
   150,    93,'1 ',2.78627E-4,5.88511E-3,6.49546E-1,3585.35,9999.00,9999.00,  0.00000,  0.00000,  0.00000,  0.00000, 1,1,   0.00,   1,1.0000,   0,1.0000,   0,1.0000,   0,1.0000
   106,    94,'1 ',4.82114E-4,1.01831E-2,1.12392E0,3585.35,9999.00,9999.00,  0.00000,  0.00000,  0.00000,  0.00000, 1,1,   0.00,   1,1.0000,   0,1.0000,   0,1.0000,   0,1.0000
   146,    94,'1 ',9.33636E-5,1.97201E-3,2.17653E-1,3585.35,9999.00,9999.00,  0.00000,  0.00000,  0.00000,  0.00000, 1,1,   0.00,   1,1.0000,   0,1.0000,   0,1.0000,   0,1.0000
   137,    95,'1 ',3.06634E-4,6.47666E-3,7.14835E-1,3585.35,9999.00,9999.00,  0.00000,  0.00000,  0.00000,  0.00000, 1,1,   0.00,   1,1.0000,   0,1.0000,   0,1.0000,   0,1.0000
   144,    95,'1 ',4.76338E-4,1.00611E-2,1.11046E0,3585.35,9999.00,9999.00,  0.00000,  0.00000,  0.00000,  0.00000, 1,1,   0.00,   1,1.0000,   0,1.0000,   0,1.0000,   0,1.0000
   148,    95,'1 ',4.70037E-4,9.92803E-3,1.09577E0,3585.35,9999.00,9999.00,  0.00000,  0.00000,  0.00000,  0.00000, 1,1,   0.00,   1,1.0000,   0,1.0000,   0,1.0000,   0,1.0000
    96,   101,'1 ',2.02574E-4,4.27873E-3,4.72248E-1,3585.35,9999.00,9999.00,  0.00000,  0.00000,  0.00000,  0.00000, 1,1,   0.00,   1,1.0000,   0,1.0000,   0,1.0000,   0,1.0000
    96,   102,'1 ',9.58788E-5,2.02514E-3,2.23516E-1,3585.35,9999.00,9999.00,  0.00000,  0.00000,  0.00000,  0.00000, 1,1,   0.00,   1,1.0000,   0,1.0000,   0,1.0000,   0,1.0000
   103,    97,'1 ',1.84726E-4,3.90175E-3,4.30640E-1,3585.35,9999.00,9999.00,  0.00000,  0.00000,  0.00000,  0.00000, 1,1,   0.00,   1,1.0000,   0,1.0000,   0,1.0000,   0,1.0000
   150,    97,'1 ',2.59283E-4,5.47653E-3,6.04450E-1,3585.35,9999.00,9999.00,  0.00000,  0.00000,  0.00000,  0.00000, 1,1,   0.00,   1,1.0000,   0,1.0000,   0,1.0000,   0,1.0000
    98,   108,'1 ',1.07986E-4,2.28087E-3,2.51742E-1,3585.35,9999.00,9999.00,  0.00000,  0.00000,  0.00000,  0.00000, 1,1,   0.00,   1,1.0000,   0,1.0000,   0,1.0000,   0,1.0000
   144,    98,'1 ',3.97586E-4,8.39774E-3,9.26867E-1,3585.35,9999.00,9999.00,  0.00000,  0.00000,  0.00000,  0.00000, 1,1,   0.00,   1,1.0000,   0,1.0000,   0,1.0000,   0,1.0000
   104,    99,'1 ',1.00272E-4,2.11793E-3,2.33759E-1,3585.35,9999.00,9999.00,  0.00000,  0.00000,  0.00000,  0.00000, 1,1,   0.00,   1,1.0000,   0,1.0000,   0,1.0000,   0,1.0000
    99,   137,'1 ',4.42287E-4,9.34190E-3,1.03107E0,3585.35,9999.00,9999.00,  0.00000,  0.00000,  0.00000,  0.00000, 1,1,   0.00,   1,1.0000,   0,1.0000,   0,1.0000,   0,1.0000
   139,   100,'1 ',2.06131E-4,4.35385E-3,4.80539E-1,3585.35,9999.00,9999.00,  0.00000,  0.00000,  0.00000,  0.00000, 1,1,   0.00,   1,1.0000,   0,1.0000,   0,1.0000,   0,1.0000
   108,   101,'1 ',3.83079E-4,8.09132E-3,8.93047E-1,3585.35,9999.00,9999.00,  0.00000,  0.00000,  0.00000,  0.00000, 1,1,   0.00,   1,1.0000,   0,1.0000,   0,1.0000,   0,1.0000
   142,   101,'1 ',1.78330E-4,3.76666E-3,4.15730E-1,3585.35,9999.00,9999.00,  0.00000,  0.00000,  0.00000,  0.00000, 1,1,   0.00,   1,1.0000,   0,1.0000,   0,1.0000,   0,1.0000
   144,   101,'1 ',6.72425E-4,1.42028E-2,1.56758E0,3585.35,9999.00,9999.00,  0.00000,  0.00000,  0.00000,  0.00000, 1,1,   0.00,   1,1.0000,   0,1.0000,   0,1.0000,   0,1.0000
   105,   102,'1 ',4.40627E-4,9.30685E-3,1.02721E0,3585.35,9999.00,9999.00,  0.00000,  0.00000,  0.00000,  0.00000, 1,1,   0.00,   1,1.0000,   0,1.0000,   0,1.0000,   0,1.0000
   106,   102,'1 ',3.30539E-4,6.98159E-3,7.70566E-1,3585.35,9999.00,9999.00,  0.00000,  0.00000,  0.00000,  0.00000, 1,1,   0.00,   1,1.0000,   0,1.0000,   0,1.0000,   0,1.0000
   104,   137,'1 ',3.55701E-4,7.51304E-3,8.29222E-1,3585.35,9999.00,9999.00,  0.00000,  0.00000,  0.00000,  0.00000, 1,1,   0.00,   1,1.0000,   0,1.0000,   0,1.0000,   0,1.0000
   146,   105,'1 ',6.11610E-4,1.29183E-2,1.42581E0,3585.35,9999.00,9999.00,  0.00000,  0.00000,  0.00000,  0.00000, 1,1,   0.00,   1,1.0000,   0,1.0000,   0,1.0000,   0,1.0000
   109,   107,'1 ',4.01858E-4,8.48797E-3,9.36826E-1,3585.35,9999.00,9999.00,  0.00000,  0.00000,  0.00000,  0.00000, 1,1,   0.00,   1,1.0000,   0,1.0000,   0,1.0000,   0,1.0000
   107,   139,'1 ',2.78375E-4,5.87978E-3,6.48957E-1,3585.35,9999.00,9999.00,  0.00000,  0.00000,  0.00000,  0.00000, 1,1,   0.00,   1,1.0000,   0,1.0000,   0,1.0000,   0,1.0000
   146,   107,'1 ',3.48221E-4,7.35507E-3,8.11787E-1,3585.35,9999.00,9999.00,  0.00000,  0.00000,  0.00000,  0.00000, 1,1,   0.00,   1,1.0000,   0,1.0000,   0,1.0000,   0,1.0000
   144,   108,'1 ',4.48424E-4,9.47154E-3,1.04538E0,3585.35,9999.00,9999.00,  0.00000,  0.00000,  0.00000,  0.00000, 1,1,   0.00,   1,1.0000,   0,1.0000,   0,1.0000,   0,1.0000
0 / END OF BRANCH DATA, BEGIN TRANSFORMER DATA
   144,     1,    0,'1 ',1,1,1,0.00000E-1,0.00000E-1,2,'            ', 1,   1,1.0000,   0,1.0000,   0,1.0000,   0,1.0000,'            '
1.22393E-4,4.89572E-3, 100.00
1.020000,500.000,   0.000,2042.60,9999.00,9999.00, 0,     0,1.500000,0.510000,1.500000,0.510000,159, 0, 0.00000, 0.00000,  0.000
1.000000, 13.800
     8,   102,    0,'1 ',1,1,1,0.00000E-1,0.00000E-1,2,'            ', 1,   1,1.0000,   0,1.0000,   0,1.0000,   0,1.0000,'            '
2.00000E-4,1.60000E-2, 100.00
1.000000,230.000,   0.000,1000.00,9999.00,9999.00, 0,     0,1.500000,0.510000,1.500000,0.510000,159, 0, 0.00000, 0.00000,  0.000
1.000000,500.000
    11,    98,    0,'1 ',1,1,1,0.00000E-1,0.00000E-1,2,'            ', 1,   1,1.0000,   0,1.0000,   0,1.0000,   0,1.0000,'            '
2.00000E-4,1.60000E-2, 100.00
1.000000,230.000,   0.000,1000.00,9999.00,9999.00, 0,     0,1.500000,0.510000,1.500000,0.510000,159, 0, 0.00000, 0.00000,  0.000
...